#
# Generated by PyRED version SEP-2022
#     http://q4md-forcefieldtools.org
#
@<TRIPOS>MOLECULE
DZ
    33    34     1     0     1
SMALL
USER_CHARGES
@<TRIPOS>ATOM
   1 P     -1.666874   1.695003  -3.772701 P    1    1W  1.1659  0.0000 ****
   2 OP1   -2.495613   0.655848  -4.401329 O2   1    1W -0.7761  0.0000 ****
   3 OP2   -1.992945   3.128471  -3.746801 O2   1    1W -0.7761  0.0000 ****
   4 O5'   -1.388260   1.193329  -2.234202 OS   1    1W -0.4954  0.0000 ****
   5 O3'    1.400885   0.000000   0.000000 OS   1    1W -0.5232  0.0000 ****
   6 C5'   -0.759168   2.069405  -1.352335 CI   1    1W -0.0069  0.0000 ****
   7 H02   -1.335984   2.980020  -1.225563 H1   1    1W  0.0754  0.0000 ****
   8 H03    0.225508   2.346031  -1.726173 H1   1    1W  0.0754  0.0000 ****
   9 C4'   -0.604219   1.405444   0.000000 CT   1    1W  0.1629  0.0000 ****
  10 H04    0.022531   2.043504   0.620117 H1   1    1W  0.1176  0.0000 ****
  11 O4'   -1.870383   1.257250   0.595778 OS   1    1W -0.3691  0.0000 ****
  12 C3'    0.000000   0.000000  -0.000000 CE   1    1W  0.0713  0.0000 ****
  13 H05   -0.381859  -0.562652  -0.843347 H1   1    1W  0.0985  0.0000 ****
  14 C2'   -0.553855  -0.556603   1.301491 CT   1    1W -0.0854  0.0000 ****
  15 H07    0.058231  -0.194809   2.120836 HC   1    1W  0.0718  0.0000 ****
  16 H08   -0.567865  -1.636369   1.345037 HC   1    1W  0.0718  0.0000 ****
  17 C1'   -1.955825   0.071641   1.360627 CT   1    1W  0.002081  0.0000 ****
  18 H09   -2.213947   0.335177   2.378358 H2   1    1W  0.104711  0.0000 ****
  19 C1    -3.054966  -0.810261   0.804750 CM   1    1W -0.149233  0.0000 ****
  20 C2    -3.471980  -1.934215   1.619200 C    1    1W  0.732751  0.0000 ****
  21 O2    -3.023975  -2.252846   2.685734 O    1    1W -0.616152  0.0000 ****
  22 N3    -4.505264  -2.708121   1.076324 N*   1    1W -0.6665  0.0000 ****
  23 HN    -4.769795  -3.475068   1.658025 H    1    1W  0.394779  0.0000 ****
  24 C4    -5.144033  -2.517896  -0.100760 CA   1    1W  0.809652  0.0000 ****
  25 N4    -6.101395  -3.392521  -0.405787 N2   1    1W -1.007104  0.0000 ****
  26 H10   -6.599360  -3.281732  -1.259852 H    1    1W  0.432936  0.0000 ****
  27 H11   -6.339792  -4.127860   0.217997 H    1    1W  0.495312  0.0000 ****
  28 C5    -4.725525  -1.431123  -0.858511 CM   1    1W -0.567261 0.0000 ****
  29 N     -5.321009  -1.119545  -2.102166 no   1    1W  1.021853  0.0000 ****
  30 ON1   -6.206802  -1.832419  -2.521353 o    1    1W -0.51215  0.0000 ****
  31 ON2   -4.928505  -0.160653  -2.697882 o    1    1W -0.611226  0.0000 ****
  32 C6    -3.674175  -0.592737  -0.365734 CM   1    1W  0.107513  0.0000 ****
  33 H12   -3.375487   0.235494  -0.972861 H4   1    1W  0.149638  0.0000 ****
@<TRIPOS>BOND
    1     1     2 1
    2     1     3 1
    3     1     4 1
    4     4     6 1
    5     5    12 1
    6     6     7 1
    7     6     8 1
    8     6     9 1
    9     9    10 1
   10     9    11 1
   11     9    12 1
   12    11    17 1
   13    12    13 1
   14    12    14 1
   15    14    15 1
   16    14    16 1
   17    14    17 1
   18    17    18 1
   19    17    19 1
   20    19    20 1
   21    19    32 1
   22    20    21 1
   23    20    22 1
   24    22    23 1
   25    22    24 1
   26    24    25 1
   27    24    28 1
   28    25    26 1
   29    25    27 1
   30    28    29 1
   31    28    32 1
   32    29    30 1
   33    29    31 1
   34    32    33 1
@<TRIPOS>SUBSTRUCTURE
      1 DZ                1 ****               0 ****  ****
@<TRIPOS>HEADTAIL
P 1
O3' 1
@<TRIPOS>RESIDUECONNECT
1 P O3' 0 0 0 0
