#
# Generated by PyRED version SEP-2022
#     http://q4md-forcefieldtools.org
#
@<TRIPOS>MOLECULE
DZ3
    34    35     1     0     1
SMALL
USER_CHARGES
@<TRIPOS>ATOM
   1 P     -0.784190   1.442680   0.000000 P    1   1WX  1.1659  0.0000 ****
   2 OP1   -2.209775   1.136856   0.189752 O2   1   1WX -0.7761  0.0000 ****
   3 OP2   -0.013624   2.395355   0.812688 O2   1   1WX -0.7761  0.0000 ****
   4 O5'    0.000000   0.000000   0.000000 OS   1   1WX -0.4954  0.0000 ****
   5 C5'    1.393182  -0.000000   0.000000 CI   1   1WX -0.0069  0.0000 ****
   6 H02    1.785589   0.506158   0.876258 H1   1   1WX  0.0754  0.0000 ****
   7 H03    1.775130   0.512311  -0.881770 H1   1   1WX  0.0754  0.0000 ****
   8 C4'    1.901641  -1.426581  -0.000000 CT   1   1WX  0.1629  0.0000 ****
   9 H04    2.978410  -1.401753  -0.156320 H1   1   1WX  0.1176  0.0000 ****
  10 O4'    1.613836  -2.025378   1.240441 OS   1   1WX -0.3691  0.0000 ****
  11 C3'    1.290690  -2.364086  -1.043156 CE   1   1WX  0.0713  0.0000 ****
  12 H05    0.230620  -2.162854  -1.140031 H1   1   1WX  0.0985  0.0000 ****
  13 O3'    1.923260  -2.290785  -2.290938 OH   1   1WX -0.6549  0.0000 ****
  14 H3T    1.531114  -1.601004  -2.807005 HO   1   1WX  0.4396  0.0000 ****
  15 C2'    1.514415  -3.717000  -0.387402 CT   1   1WX -0.0854  0.0000 ****
  16 H07    2.536946  -4.027349  -0.574445 HC   1   1WX  0.0718  0.0000 ****
  17 H08    0.856663  -4.493739  -0.750754 HC   1   1WX  0.0718  0.0000 ****
  18 C1'    1.313847  -3.399870   1.103540 CT   1   1WX  0.002081  0.0000 ****
  19 H09    2.007222  -3.966810   1.711540 H2   1   1WX  0.104711  0.0000 ****
  20 C1    -0.088902  -3.663961   1.610900 CM   1   1WX -0.149233  0.0000 ****
  21 C2    -0.468445  -5.049116   1.805299 C    1   1WX  0.732751  0.0000 ****
  22 O2     0.208590  -6.015794   1.588762 O    1   1WX -0.616152  0.0000 ****
  23 N3    -1.765315  -5.244684   2.296422 N*   1   1WX -0.6665    0.0000 ****
  24 HN    -1.998834  -6.207563   2.418462 H    1   1WX  0.394779  0.0000 ****
  25 C4    -2.679212  -4.296675   2.605954 CA   1   1WX  0.809652  0.0000 ****
  26 N4    -3.854579  -4.729530   3.059498 N2   1   1WX -1.007104  0.0000 ****
  27 H10   -4.550380  -4.062260   3.305021 H    1   1WX  0.432936  0.0000 ****
  28 H11   -4.029783  -5.699645   3.181335 H    1   1WX  0.495312  0.0000 ****
  29 C5    -2.286485  -2.978035   2.412654 CM   1   1WX -0.567261  0.0000 ****
  30 N     -3.146664  -1.895996   2.708697 no   1   1WX  1.021853  0.0000 ****
  31 ON1   -4.260262  -2.131107   3.124819 o    1   1WX -0.51215   0.0000 ****
  32 ON2   -2.743529  -0.783941   2.537731 o    1   1WX -0.611226  0.0000 ****
  33 C6    -0.972622  -2.700872   1.914656 CM   1   1WX  0.107513  0.0000 ****
  34 H12   -0.701236  -1.675581   1.777131 H4   1   1WX  0.149638  0.0000 ****
@<TRIPOS>BOND
    1     1     2 1
    2     1     3 1
    3     1     4 1
    4     4     5 1
    5     5     6 1
    6     5     7 1
    7     5     8 1
    8     8     9 1
    9     8    10 1
   10     8    11 1
   11    10    18 1
   12    11    12 1
   13    11    13 1
   14    11    15 1
   15    13    14 1
   16    15    16 1
   17    15    17 1
   18    15    18 1
   19    18    19 1
   20    18    20 1
   21    20    21 1
   22    20    33 1
   23    21    22 1
   24    21    23 1
   25    23    24 1
   26    23    25 1
   27    25    26 1
   28    25    29 1
   29    26    27 1
   30    26    28 1
   31    29    30 1
   32    29    33 1
   33    30    31 1
   34    30    32 1
   35    33    34 1
@<TRIPOS>SUBSTRUCTURE
      1 DZ3               1 ****               0 ****  ****
@<TRIPOS>HEADTAIL
P 1
0 0
@<TRIPOS>RESIDUECONNECT
1 P 0 0 0 0 0
