#
# Generated by PyRED version SEP-2022
#     http://q4md-forcefieldtools.org
#
@<TRIPOS>MOLECULE
DZ5
    31    32     1     0     1
SMALL
USER_CHARGES
@<TRIPOS>ATOM
   1 O3'    0.000000   0.000000  -0.000000 OS   1   1WY -0.5232  0.0000 ****
   2 O5'    2.785907  -1.187110  -2.240462 OH   1   1WY -0.6318  0.0000 ****
   3 H5T    3.222540  -1.665647  -2.930222 HO   1   1WY  0.4422  0.0000 ****
   4 C5'    2.152349  -2.069405  -1.352335 CT   1   1WY -0.0069  0.0000 ****
   5 H02    2.729165  -2.980020  -1.225563 H1   1   1WY  0.0754  0.0000 ****
   6 H03    1.167673  -2.346031  -1.726173 H1   1   1WY  0.0754  0.0000 ****
   7 C4'    1.997400  -1.405444  -0.000000 CT   1   1WY  0.1629  0.0000 ****
   8 H04    1.370650  -2.043504   0.620117 H1   1   1WY  0.1176  0.0000 ****
   9 O4'    3.263564  -1.257250   0.595778 OS   1   1WY -0.3691  0.0000 ****
  10 C3'    1.393181   0.000000  -0.000000 CE   1   1WY  0.0713  0.0000 ****
  11 H05    1.775040   0.562652  -0.843347 H1   1   1WY  0.0985  0.0000 ****
  12 C2'    1.947036   0.556603   1.301491 CT   1   1WY -0.0854  0.0000 ****
  13 H07    1.334950   0.194809   2.120836 HC   1   1WY  0.0718  0.0000 ****
  14 H08    1.961046   1.636369   1.345037 HC   1   1WY  0.0718  0.0000 ****
  15 C1'    3.349006  -0.071641   1.360627 CT   1   1WY  0.002081  0.0000 ****
  16 H09    3.607128  -0.335177   2.378358 H2   1   1WY  0.104711  0.0000 ****
  17 C1     4.448147   0.810261   0.804750 CM   1   1WY -0.149233  0.0000 ****
  18 C2     4.865161   1.934215   1.619200 C    1   1WY  0.732751  0.0000 ****
  19 O2     4.417156   2.252846   2.685734 O    1   1WY -0.616152  0.0000 ****
  20 N3     5.898445   2.708121   1.076324 N*   1   1WY -0.6665  0.0000 ****
  21 HN     6.162976   3.475068   1.658025 H    1   1WY  0.394779  0.0000 ****
  22 C4     6.537214   2.517896  -0.100760 CA   1   1WY  0.809652  0.0000 ****
  23 N4     7.494576   3.392521  -0.405787 N2   1   1WY -1.007104  0.0000 ****
  24 H10    7.992541   3.281732  -1.259852 H    1   1WY  0.432936  0.0000 ****
  25 H11    7.732973   4.127860   0.217997 H    1   1WY  0.495312  0.0000 ****
  26 C5     6.118706   1.431123  -0.858511 CM   1   1WY -0.567261  0.0000 ****
  27 N      6.714190   1.119545  -2.102166 no   1   1WY  1.021853  0.0000 ****
  28 ON1    7.599983   1.832419  -2.521353 o    1   1WY -0.51215  0.0000 ****
  29 ON2    6.321686   0.160653  -2.697882 o    1   1WY -0.611226  0.0000 ****
  30 C6     5.067356   0.592737  -0.365734 CM   1   1WY  0.107513  0.0000 ****
  31 H12    4.768668  -0.235494  -0.972861 H4   1   1WY  0.149638  0.0000 ****
@<TRIPOS>BOND
    1     1    10 1
    2     2     3 1
    3     2     4 1
    4     4     5 1
    5     4     6 1
    6     4     7 1
    7     7     8 1
    8     7     9 1
    9     7    10 1
   10     9    15 1
   11    10    11 1
   12    10    12 1
   13    12    13 1
   14    12    14 1
   15    12    15 1
   16    15    16 1
   17    15    17 1
   18    17    18 1
   19    17    30 1
   20    18    19 1
   21    18    20 1
   22    20    21 1
   23    20    22 1
   24    22    23 1
   25    22    26 1
   26    23    24 1
   27    23    25 1
   28    26    27 1
   29    26    30 1
   30    27    28 1
   31    27    29 1
   32    30    31 1
@<TRIPOS>SUBSTRUCTURE
      1 DZ5               1 ****               0 ****  ****
@<TRIPOS>HEADTAIL
0 0
O3' 1
@<TRIPOS>RESIDUECONNECT
1 0 O3' 0 0 0 0
