#
# Generated by PyRED version SEP-2022
#     http://q4md-forcefieldtools.org
#
@<TRIPOS>MOLECULE
DP
    33    35     1     0     1
SMALL
USER_CHARGES
@<TRIPOS>ATOM
   1 P     -1.812441   2.029309  -3.680567 P    1    1W  1.1659  0.0000 ****
   2 OP1   -2.976026   1.298255  -4.203499 O2   1    1W -0.7761  0.0000 ****
   3 OP2   -1.680187   3.493501  -3.658851 O2   1    1W -0.7761  0.0000 ****
   4 O5'   -1.553450   1.457432  -2.163280 OS   1    1W -0.4954  0.0000 ****
   5 O3'    1.397936   0.000000   0.000000 OS   1    1W -0.5232  0.0000 ****
   6 C5'   -0.604394   2.093073  -1.365652 CI   1    1W -0.0069  0.0000 ****
   7 H01   -0.844011   3.145793  -1.249190 H1   1    1W  0.0754  0.0000 ****
   8 H02    0.347891   2.019574  -1.873786 H1   1    1W  0.0754  0.0000 ****
   9 C4'   -0.488955   1.442823  -0.000000 CT   1    1W  0.1629  0.0000 ****
  10 H04    0.180379   2.028442   0.624550 H1   1    1W  0.1176  0.0000 ****
  11 O4'   -1.776214   1.392739   0.583432 OS   1    1W -0.3691  0.0000 ****
  12 C3'    0.000000   0.000000  -0.000000 CE   1    1W  0.0713  0.0000 ****
  13 H05   -0.378864  -0.513308  -0.877430 H1   1    1W  0.0985  0.0000 ****
  14 C2'   -0.640007  -0.542389   1.277362 CT   1    1W -0.0854  0.0000 ****
  15 H07    0.016908  -0.314785   2.109294 HC   1    1W  0.0718  0.0000 ****
  16 H08   -0.827357  -1.608519   1.272358 HC   1    1W  0.0718  0.0000 ****
  17 C1'   -1.936026   0.272947   1.406458 CT   1    1W  0.081808  0.0000 ****
  18 H09   -2.122906   0.580837   2.421707 H2   1    1W  0.107725  0.0000 ****
  19 N1    -6.289188  -1.793336   3.015776 NC   1    1W -0.95637  0.0000 ****
  20 C2    -5.320961  -1.160993   3.639310 CA   1    1W  1.146417  0.0000 ****
  21 N2    -5.448398  -1.012933   4.964806 N2   1    1W -1.014116  0.0000 ****
  22 H10   -4.804174  -0.440494   5.456959 H    1    1W  0.42303  0.0000 ****
  23 H11   -6.303405  -1.282675   5.392206 H    1    1W  0.41416  0.0000 ****
  24 N3    -4.187916  -0.642570   3.113903 NC   1    1W -0.846649  0.0000 ****
  25 C4    -4.111943  -0.824581   1.826329 CB   1    1W  0.5044  0.0000 ****
  26 N5    -5.036573  -1.461363   1.090274 N*   1    1W -0.252421  0.0000 ****
  27 C6    -6.214063  -1.992911   1.688035 C    1    1W  1.027419  0.0000 ****
  28 O6    -7.000666  -2.546904   0.981400 O    1    1W -0.68019  0.0000 ****
  29 C7    -4.636972  -1.482341  -0.243674 CK   1    1W -0.18837  0.0000 ****
  30 H12   -5.244468  -1.938070  -0.991771 H5   1    1W  0.228235  0.0000 ****
  31 C8    -3.466598  -0.856995  -0.302055 CK   1    1W -0.236506  0.0000 ****
  32 H13   -2.838900  -0.639015  -1.136484 H5   1    1W  0.219649  0.0000 ****
  33 N9    -3.129525  -0.441763   0.995304 N*   1    1W  0.143379 0.0000 ****
@<TRIPOS>BOND
    1     1     2 1
    2     1     3 1
    3     1     4 1
    4     4     6 1
    5     5    12 1
    6     6     7 1
    7     6     8 1
    8     6     9 1
    9     9    10 1
   10     9    11 1
   11     9    12 1
   12    11    17 1
   13    12    13 1
   14    12    14 1
   15    14    15 1
   16    14    16 1
   17    14    17 1
   18    17    18 1
   19    17    33 1
   20    19    20 1
   21    19    27 1
   22    20    21 1
   23    20    24 1
   24    21    22 1
   25    21    23 1
   26    24    25 1
   27    25    26 1
   28    25    33 1
   29    26    27 1
   30    26    29 1
   31    27    28 1
   32    29    30 1
   33    29    31 1
   34    31    32 1
   35    31    33 1
@<TRIPOS>SUBSTRUCTURE
      1 DP               1 ****               0 ****  ****
@<TRIPOS>HEADTAIL
P 1
O3' 1
@<TRIPOS>RESIDUECONNECT
1 P O3' 0 0 0 0
