#
# Generated by PyRED version SEP-2022
#     http://q4md-forcefieldtools.org
#
@<TRIPOS>MOLECULE
DP5
    34    36     1     0     1
SMALL
USER_CHARGES
@<TRIPOS>ATOM
   1 P     -0.784190   1.442680   0.000000 P    1   1WX  1.1659  0.0000 ****
   2 OP1   -2.209775   1.136856   0.189752 O2   1   1WX -0.7761  0.0000 ****
   3 OP2   -0.013624   2.395355   0.812688 O2   1   1WX -0.7761  0.0000 ****
   4 O5'    0.000000   0.000000   0.000000 OS   1   1WX -0.4954  0.0000 ****
   5 C5'    1.393182  -0.000000   0.000000 CI   1   1WX -0.0069  0.0000 ****
   6 H01    1.776933   0.546421   0.856363 H1   1   1WX  0.0754  0.0000 ****
   7 H02    1.717441   0.510578  -0.897004 H1   1   1WX  0.0754  0.0000 ****
   8 C4'    1.957010  -1.408281  -0.000000 CT   1   1WX  0.1629  0.0000 ****
   9 H04    3.037728  -1.365710   0.106097 H1   1   1WX  0.1176  0.0000 ****
  10 O4'    1.391287  -2.118156   1.084422 OS   1   1WX -0.3691  0.0000 ****
  11 C3'    1.631804  -2.244762  -1.230998 CE   1   1WX  0.0713  0.0000 ****
  12 H05    0.637171  -1.998065  -1.587020 H1   1   1WX  0.0985  0.0000 ****
  13 O3'    2.584098  -1.978087  -2.219049 OH   1   1WX -0.6549  0.0000 ****
  14 H3T    2.294456  -2.319638  -3.053255 HO   1   1WX  0.4396  0.0000 ****
  15 C2'    1.679674  -3.662269  -0.661936 CT   1   1WX -0.0854  0.0000 ****
  16 H07    2.707319  -4.006341  -0.693777 HC   1   1WX  0.0718  0.0000 ****
  17 H08    1.062761  -4.381317  -1.185525 HC   1   1WX  0.0718  0.0000 ****
  18 C1'    1.242714  -3.479696   0.799856 CT   1   1WX  0.081808  0.0000 ****
  19 H09    1.837137  -4.068746   1.478188 H2   1   1WX  0.107725  0.0000 ****
  20 N1    -1.744097  -6.833353   3.175018 NC   1   1WX -0.95637   0.0000 ****
  21 C2    -0.439032  -6.702903   3.098174 CA   1   1WX  1.146417  0.0000 ****
  22 N2     0.300585  -7.613348   3.745598 N2   1   1WX -1.014116  0.0000 ****
  23 H10    1.282384  -7.486019   3.814759 H    1   1WX  0.42303  0.0000 ****
  24 H11   -0.160233  -8.266768   4.334798 H    1   1WX  0.41416 0.0000 ****
  25 N3     0.268539  -5.763617   2.430572 NC   1   1WX -0.846649  0.0000 ****
  26 C4    -0.499914  -4.912949   1.812034 CB   1   1WX  0.5044  0.0000 ****
  27 N5    -1.841727  -4.954620   1.815739 N*   1   1WX  -0.252421  0.0000 ****
  28 C6    -2.544138  -5.964421   2.532163 C    1   1WX  1.027419  0.0000 ****
  29 O6    -3.737307  -5.948198   2.499472 O    1   1WX -0.68019  0.0000 ****
  30 C7    -2.342798  -3.904105   1.050962 CK   1   1WX -0.18837  0.0000 ****
  31 H12   -3.392862  -3.759690   0.937387 H5   1   1WX  0.228235  0.0000 ****
  32 C8    -1.293632  -3.234635   0.586956 CK   1   1WX -0.236506  0.0000 ****
  33 H13   -1.244310  -2.356523  -0.016598 H5   1   1WX  0.219649  0.0000 ****
  34 N9    -0.131796  -3.863468   1.060119 N*   1   1WX  0.143379  0.0000 ****
@<TRIPOS>BOND
    1     1     2 1
    2     1     3 1
    3     1     4 1
    4     4     5 1
    5     5     6 1
    6     5     7 1
    7     5     8 1
    8     8     9 1
    9     8    10 1
   10     8    11 1
   11    10    18 1
   12    11    12 1
   13    11    13 1
   14    11    15 1
   15    13    14 1
   16    15    16 1
   17    15    17 1
   18    15    18 1
   19    18    19 1
   20    18    34 1
   21    20    21 1
   22    20    28 1
   23    21    22 1
   24    21    25 1
   25    22    23 1
   26    22    24 1
   27    25    26 1
   28    26    27 1
   29    26    34 1
   30    27    28 1
   31    27    30 1
   32    28    29 1
   33    30    31 1
   34    30    32 1
   35    32    33 1
   36    32    34 1
@<TRIPOS>SUBSTRUCTURE
      1 DP3             1 ****               0 ****  ****
@<TRIPOS>HEADTAIL
P 1
0 0
@<TRIPOS>RESIDUECONNECT
1 P 0 0 0 0 0
