#
# Generated by PyRED version SEP-2022
#     http://q4md-forcefieldtools.org
#
@<TRIPOS>MOLECULE
DP5
    31    33     1     0     1
SMALL
USER_CHARGES
@<TRIPOS>ATOM
   1 O3'    0.000000   0.000000  -0.000000 OS   1   1WY -0.5232  0.0000 ****
   2 O5'    2.951895  -1.453907  -2.167703 OH   1   1WY -0.6318  0.0000 ****
   3 H5T    3.811208  -1.668031  -1.829689 HO   1   1WY  0.4422  0.0000 ****
   4 C5'    1.997575  -2.093073  -1.365652 CT   1   1WY -0.0069  0.0000 ****
   5 H01    2.237192  -3.145793  -1.249190 H1   1   1WY  0.0754  0.0000 ****
   6 H02    1.045290  -2.019574  -1.873786 H1   1   1WY  0.0754  0.0000 ****
   7 C4'    1.882136  -1.442823  -0.000000 CT   1   1WY  0.1629  0.0000 ****
   8 H04    1.212802  -2.028442   0.624550 H1   1   1WY  0.1176  0.0000 ****
   9 O4'    3.169395  -1.392739   0.583432 OS   1   1WY -0.3691  0.0000 ****
  10 C3'    1.393181   0.000000   0.000000 CE   1   1WY  0.0713  0.0000 ****
  11 H05    1.772045   0.513308  -0.877430 H1   1   1WY  0.0985  0.0000 ****
  12 C2'    2.033188   0.542389   1.277362 CT   1   1WY -0.0854  0.0000 ****
  13 H07    1.376273   0.314785   2.109294 HC   1   1WY  0.0718  0.0000 ****
  14 H08    2.220538   1.608519   1.272358 HC   1   1WY  0.0718  0.0000 ****
  15 C1'    3.329207  -0.272947   1.406458 CT   1   1WY  0.081808  0.0000 ****
  16 H09    3.516087  -0.580837   2.421707 H2   1   1WY  0.107725  0.0000 ****
  17 N1     7.682369   1.793336   3.015776 NC   1   1WY -0.95637  0.0000 ****
  18 C2     6.714142   1.160993   3.639310 CA   1   1WY  1.146417  0.0000 ****
  19 N2     6.841579   1.012933   4.964806 N2   1   1WY -1.014116  0.0000 ****
  20 H10    6.197355   0.440494   5.456959 H    1   1WY  0.42303  0.0000 ****
  21 H11    7.696585   1.282675   5.392206 H    1   1WY  0.41416  0.0000 ****
  22 N3     5.581097   0.642570   3.113903 NC   1   1WY -0.846649  0.0000 ****
  23 C4     5.505124   0.824581   1.826329 CB   1   1WY  0.5044  0.0000 ****
  24 N5     6.429754   1.461363   1.090274 N*   1   1WY -0.252421  0.0000 ****
  25 C6     7.607243   1.992911   1.688035 C    1   1WY  1.027419  0.0000 ****
  26 O6     8.393847   2.546904   0.981400 O    1   1WY -0.68019  0.0000 ****
  27 C7     6.030153   1.482341  -0.243674 CK   1   1WY -0.18837  0.0000 ****
  28 H12    6.637649   1.938070  -0.991771 H5   1   1WY  0.228235  0.0000 ****
  29 C8     4.859779   0.856995  -0.302055 CK   1   1WY -0.236506  0.0000 ****
  30 H13    4.232081   0.639015  -1.136484 H5   1   1WY  0.219649  0.0000 ****
  31 N9     4.522706   0.441763   0.995304 N*   1   1WY  0.143379  0.0000 ****
@<TRIPOS>BOND
    1     1    10 1
    2     2     3 1
    3     2     4 1
    4     4     5 1
    5     4     6 1
    6     4     7 1
    7     7     8 1
    8     7     9 1
    9     7    10 1
   10     9    15 1
   11    10    11 1
   12    10    12 1
   13    12    13 1
   14    12    14 1
   15    12    15 1
   16    15    16 1
   17    15    31 1
   18    17    18 1
   19    17    25 1
   20    18    19 1
   21    18    22 1
   22    19    20 1
   23    19    21 1
   24    22    23 1
   25    23    24 1
   26    23    31 1
   27    24    25 1
   28    24    27 1
   29    25    26 1
   30    27    28 1
   31    27    29 1
   32    29    30 1
   33    29    31 1
@<TRIPOS>SUBSTRUCTURE
      1 DP5               1 ****               0 ****  ****
@<TRIPOS>HEADTAIL
0 0
O3' 1
@<TRIPOS>RESIDUECONNECT
1 0 O3' 0 0 0 0
